DH1.pdb
 OpenBabel05111815413D

  8  7  0  0  0  0  0  0  0  0999 V2000
   13.0180   34.9540    7.3420 C   0  0  0  0  0  0  0  0  0  0  0  0
   11.8270   34.8670    6.4650 C   0  0  0  0  0  0  0  0  0  0  0  0
   13.8820   33.2200    7.6290 Br  0  0  0  0  0  0  0  0  0  0  0  0
   10.0800   35.3620    8.4650 Br  0  0  0  0  0  0  0  0  0  0  0  0
   13.7770   35.6570    6.9470 H   0  0  0  0  0  0  0  0  0  0  0  0
   12.7610   35.3470    8.3590 H   0  0  0  0  0  0  0  0  0  0  0  0
   11.3740   35.7960    6.0970 H   0  0  0  0  0  0  0  0  0  0  0  0
   11.2630   33.9370    6.3630 H   0  0  0  0  0  0  0  0  0  0  0  0
  1  2  1  0  0  0  0
  1  3  1  0  0  0  0
  1  5  1  0  0  0  0
  1  6  1  0  0  0  0
  2  7  1  0  0  0  0
  2  8  1  0  0  0  0
  2  4  1  0  0  0  0
M  END
