obj08
  PyMOL184          3D                             0

  8  7  0  0  0  0  0  0  0  0999 V2000
   13.0191   34.9449    7.3414 C   0  0  0  0  0  0  0  0  0  0  0  0
   11.8257   34.8711    6.4642 C   0  0  0  0  0  0  0  0  0  0  0  0
   13.8818   33.2249    7.6298 Br  0  0  0  0  0  0  0  0  0  0  0  0
   10.1122   35.8032    8.4287 Br  0  0  0  0  0  0  0  0  0  0  0  0
   13.7787   35.6611    6.9777 H   0  0  0  0  0  0  0  0  0  0  0  0
   12.7255   35.2963    8.3638 H   0  0  0  0  0  0  0  0  0  0  0  0
   11.4198   35.8096    6.0623 H   0  0  0  0  0  0  0  0  0  0  0  0
   11.1723   33.9942    6.4947 H   0  0  0  0  0  0  0  0  0  0  0  0
  1  2  1  0  0  0  0
  1  5  1  0  0  0  0
  1  6  1  0  0  0  0
  2  7  1  0  0  0  0
  2  8  1  0  0  0  0
  1  3  1  0  0  0  0
  2  4  1  0  0  0  0
M  END
