# created with PyMOL 1.8.6.0
@<TRIPOS>MOLECULE
obj01
8 7 1                   
SMALL
USER_CHARGES
@<TRIPOS>ATOM
1	  C1	13.016	34.940	7.339	C.3	1	LIG294	0.000	
2	  C2	11.822	34.878	6.463	C.3	1	LIG294	0.000	
3	 Br1	13.888	33.223	7.634	Br	1	LIG294	0.000	
4	 Br2	11.121	37.110	8.782	Br	1	LIG294	0.000	
5	  H1	13.770	35.679	7.009	 H	1	LIG294	0.000	
6	  H2	12.690	35.314	8.360	 H	1	LIG294	0.000	
7	  H3	11.234	35.815	6.389	 H	1	LIG294	0.000	
8	  H4	11.220	33.965	6.482	 H	1	LIG294	0.000	
@<TRIPOS>BOND
1 1 2 1
2 1 5 1
3 1 6 1
4 2 7 1
5 2 8 1
6 1 3 1
7 2 4 1
@<TRIPOS>SUBSTRUCTURE
1	LIG294	1	GROUP	1 ****	LIG
